2、CSEE-FS/MATLAB/HFLF.m
function mpc = HFLF
%   MATPOWER 

%% MATPOWER Case Format : Version 2 
mpc.version = '2';

%%-----  Power Flow Data  -----%% 
%% system MVA base
mpc.baseMVA = 100; 

%% bus data 
%	bus_i	type	Pd	Qd	Gs	Bs	area	Vm	Va	baseKV	zone	Vmax	Vmin
mpc.bus = [
    1    1    0    0    0    0        1    0.9887017778931655    -1.570786636034786    1    1    1.06    0.94;
    2    1    0    0    0    0        1    0.9875571286536791    -2.938768749965242    1    1    1.06    0.94;
    3    1    0    0    0    0        1    0.992056221697034    -0.7438175699445216    1    1    1.06    0.94;
    4    1    0    0    0    0        1    0.9917603778260098    -1.904277727017406    1    1    1.06    0.94;
    5    1    0    0    0    0        1    0.9937140781310778    -0.9194760887782658    1    1    1.06    0.94;
    6    1    0    0    0    0        1    0.9919181142395161    -1.773033584178696    1    1    1.06    0.94;
    7    1    0    0    0    0        1    0.9868460579136027    -3.757858314857793    1    1    1.06    0.94;
    8    1    0    0    0    450        1    0.9876569593170575    -2.997511307360601    1    2    1.06    0.94;
    9    3    0    0    0    0        1    1    0    1    3    1.06    0.94;
    10    1    0    0    0    450        1    0.9938979948650866    -0.9658857914701793    1    2    1.06    0.94;
    11    3    0    0    0    0        1    1    0    1    3    1.06    0.94;
    12    1    0    0    0    440        1    0.9870150404688078    -3.804916961759751    1    2    1.06    0.94;
    13    3    0    0    0    0        1    1    0    1    3    1.06    0.94;
    14    1    0    0    0    60        1    1.033231034210988    6.732760805320938    1    4    1.06    0.94;
    15    1    0    0    0    60        1    1.033535361489423    8.315614541703718    1    4    1.06    0.94;
    16    1    0    0    0    60        1    1.031937526928264    7.132253122158803    1    4    1.06    0.94;
    17    1    0    0    0    60        1    1.033689806456487    6.539729827752553    1    4    1.06    0.94;
    18    1    0    0    0    60        1    1.033535361489423    8.315614541703718    1    4    1.06    0.94;
    19    1    0    0    0    60        1    1.031937526928264    7.132253122158803    1    4    1.06    0.94;
    20    1    0    0    0    60        1    1.033660097668696    6.502983359265121    1    4    1.06    0.94;
    21    1    0    0    0    60        1    1.033451119657464    8.316974308933256    1    4    1.06    0.94;
    22    1    0    0    0    60        1    1.031852913227672    7.133623191220666    1    4    1.06    0.94;
    23    1    0    0    0    60        1    1.033231862735084    6.504490139521062    1    4    1.06    0.94;
    24    1    0    0    0    60        1    1.033022703586107    8.318481751763001    1    4    1.06    0.94;
    25    1    0    0    0    60        1    1.031422400286824    7.135145499145662    1    4    1.06    0.94;
    26    1    0    0    0    60        1    1.033147551227016    6.505849570634057    1    4    1.06    0.94;
    27    1    0    0    0    60        1    1.032938342870968    8.319842566648644    1    4    1.06    0.94;
    28    1    0    0    0    60        1    1.031337667695165    7.13651649115706    1    4    1.06    0.94;
    29    1    0    0    0    60        1    1.033147551227016    6.505849570634057    1    4    1.06    0.94;
    30    1    0    0    0    60        1    1.032938342870968    8.319842566648644    1    4    1.06    0.94;
    31    1    0    0    0    60        1    1.031337667695165    7.13651649115706    1    4    1.06    0.94;
    32    1    0    0    0    60        1    1.032938342870968    8.319842566648644    1    4    1.06    0.94;
    33    1    0    0    0    60        1    1.032938342870968    8.319842566648644    1    4    1.06    0.94;
    34    1    0    0    0    0        1    1.016089155270623    2.909678142267638    1    4    1.06    0.94;
    35    1    0    0    0    0        1    1.015939771291349    4.684485590070243    1    4    1.06    0.94;
    36    1    0    0    0    0        1    1.014394599222374    3.489946762734177    1    4    1.06    0.94;
    37    1    0    0    0    0        1    1.016060355736227    2.872724693112068    1    4    1.06    0.94;
    38    1    0    0    0    0        1    1.015858361277422    4.685256486697178    1    4    1.06    0.94;
    39    1    0    0    0    0        1    1.014312791475518    3.490723177285805    1    4    1.06    0.94;
    40    1    0    0    0    0        1    1.01597892254217    2.87349553361766    1    4    1.06    0.94;
    41    1    0    0    0    0        1    1.015776832636611    4.686028056220636    1    4    1.06    0.94;
    42    1    0    0    0    0        1    1.014230864926931    3.491500127213506    1    4    1.06    0.94;
    43    1    0    0    0    0        1    1.015776832636611    4.686028056220636    1    4    1.06    0.94;
    44    1    0    0    0    0        1    1.006820517727115    1.530650160736173    1    4    1.06    0.94;
    45    1    0    0    0    0        1    1.00662109902612    3.342614003253072    1    4    1.06    0.94;
    46    1    0    0    0    0        1    1.005095812083038    2.14372278610669    1    4    1.06    0.94;
    47    1    0    0    0    0        1    1.008795919000002    1.87534037733359    1    4    1.06    0.94;
    48    1    0    0    0    0        1    1.008795919000002    1.87534037733359    1    4    1.06    0.94;
    49    1    0    0    0    125        1    1.041234771195233    1.855200871508183    1    4    1.06    0.94;
    50    1    0    0    0    0        1    1.00825788088529    3.796237413484923    1    4    1.06    0.94;
    51    1    0    0    0    0        1    1.00825788088529    3.796237413484923    1    4    1.06    0.94;
    52    1    0    0    0    0        1    1.00825788088529    3.796237413484923    1    4    1.06    0.94;
    53    1    0    0    0    0        1    1.006315597046643    2.485102917564757    1    4    1.06    0.94;
    54    1    0    0    0    0        1    1.006315597046643    2.485102917564757    1    4    1.06    0.94;
    55    1    0    0    0    0        1    1.006315597046643    2.485102917564757    1    4    1.06    0.94;
    56    1    1100    360    0    0        1    0.9196075949931318    -15.13376719760525    1    1    1.06    0.94;
    57    1    700    220    0    0        1    0.9377645393402215    -11.33099827750944    1    1    1.06    0.94;
    58    1    900    300    0    0        1    0.9265877986902749    -11.65386422930769    1    1    1.06    0.94;
    59    1    429.1    78    0    0        1    0.9880522140179503    -6.766120749002651    1    1    1.06    0.94;
    60    1    500    170    0    0        1    0.9786073221941345    -6.631727270069311    1    1    1.06    0.94;
    61    1    1223    400    0    0        1    0.9552906506084334    -18.41923725519124    1    1    1.06    0.94;
    62    1    0    0    0    170        1    0.9805643944972382    -16.77299572445973    1    4    1.06    0.94;
    63    1    0    0    0    35        1    0.9469097329800443    -12.31009340766993    1    4    1.06    0.94;
    64    1    0    0    0    80        1    0.9516651265451799    -12.9559353878845    1    4    1.06    0.94;
    65    1    0    0    0    72        1    1.016613116711046    -7.318007420855176    1    4    1.06    0.94;
    66    1    0    0    0    110        1    1.021254587513315    -7.298203212175681    1    4    1.06    0.94;
    67    1    0    0    0    351        1    1.106485830765211    -20.16820449953118    1    4    1.06    0.94;
    68    1    0    0    0    0        1    0.9206794066526311    -5.003102275965081    1    5    1.06    0.94;
    69    1    0    0    0    0        1    0.9700757288537962    1.84573252660395    1    5    1.06    0.94;
    70    1    0    0    0    0        1    0.9192885382504307    -2.57906281834386    1    5    1.06    0.94;
    71    1    0    0    0    0        1    0.9707832277296283    1.480758401143891    1    5    1.06    0.94;
    72    1    0    0    0    0        1    0.9192885404620983    -5.418094170498552    1    5    1.06    0.94;
    73    1    0    0    0    0        1    0.9707832277296283    1.480758401143891    1    5    1.06    0.94;
    74    1    0    0    0    0        1    0.9206794066526311    -5.003102275965081    1    5    1.06    0.94;
    75    1    0    0    0    450        1    1.000087035951542    0.0567178861753288    1    2    1.06    0.94;
    76    1    0    0    0    0        1    0.9700757288537962    1.84573252660395    1    5    1.06    0.94;
    77    1    0    0    0    0        1    0.9192885382504307    -2.57906281834386    1    5    1.06    0.94;
    78    1    0    0    0    450        1    1.000168161527217    0.0454622864351792    1    2    1.06    0.94;
    79    1    0    0    0    0        1    0.9707832277296283    1.480758401143891    1    5    1.06    0.94;
    80    1    0    0    0    0        1    0.9192885404620983    -5.418094170498552    1    5    1.06    0.94;
    81    1    0    0    0    450        1    1.000168161527217    0.0454622864351792    1    2    1.06    0.94;
    82    1    0    0    0    0        1    0.9707832277296283    1.480758401143891    1    5    1.06    0.94;
    83    2    0    0    0    0        1    0.9999999661028007    3.675965375704891    1    1    1.06    0.94;
    84    2    0    0    0    0        1    1.000000037730907    2.212634025399228    1    1    1.06    0.94;
    85    1    0    0    0    0        1    1.032462033830059    8.716418568952102    1    4    1.06    0.94;
    86    1    0    0    0    0        1    1.032377543562083    8.718139802670594    1    4    1.06    0.94;
    87    1    0    0    0    0        1    1.032377543562083    8.718139802670594    1    4    1.06    0.94;
    88    1    0    0    0    0        1    1.032252312021943    10.53130910266938    1    4    1.06    0.94;
    89    1    0    0    0    0        1    1.032167751057822    10.53303233322112    1    4    1.06    0.94;
    90    1    0    0    0    0        1    1.032167751057822    10.53303233322112    1    4    1.06    0.94;
    91    1    0    0    0    0        1    1.032167751057822    10.53303233322112    1    4    1.06    0.94;
    92    1    0    0    0    0        1    1.032167751057822    10.53303233322112    1    4    1.06    0.94;
    93    1    0    0    0    0        1    1.030648499294271    9.354857513786039    1    4    1.06    0.94;
    94    1    0    0    0    0        1    1.030563518471013    9.356594699040693    1    4    1.06    0.94;
    95    1    0    0    0    0        1    1.030563518471013    9.356594699040693    1    4    1.06    0.94;
    96    1    0    0    0    0        1    1.008795919000002    1.87534037733359    1    4    1.06    0.94;
    97    1    0    0    0    0        1    1.008795919000002    1.87534037733359    1    4    1.06    0.94;
    98    1    0    0    0    0        1    1.006509683375918    1.870759822610777    1    4    1.06    0.94;
    99    1    0    0    0    0        1    1.00825788088529    3.796237413484923    1    4    1.06    0.94;
    100    1    0    0    0    0        1    1.00825788088529    3.796237413484923    1    4    1.06    0.94;
    101    1    0    0    0    0        1    1.00825788088529    3.796237413484923    1    4    1.06    0.94;
    102    1    0    0    0    0        1    1.006315597046643    2.485102917564757    1    4    1.06    0.94;
    103    1    0    0    0    0        1    1.006315597046643    2.485102917564757    1    4    1.06    0.94;
    104    1    0    0    0    0        1    1.006315597046643    2.485102917564757    1    4    1.06    0.94;
    105    1    0    0    0    0        1    0.9123360494123037    -16.72379186694728    1    4    1.06    0.94;
    106    1    0    0    0    0        1    0.9333447568011281    -12.3005311107905    1    4    1.06    0.94;
    107    1    0    0    0    0        1    0.9205038898372122    -12.93366326736077    1    4    1.06    0.94;
    108    1    0    0    0    0        1    0.9866540119217031    -7.298030016356681    1    4    1.06    0.94;
    109    1    0    0    0    0        1    0.9752746971873072    -7.267185495802135    1    4    1.06    0.94;
    110    1    0    0    0    0        1    0.9475251065653671    -20.05782663398821    1    4    1.06    0.94;
    111    2    0    0    0    0        1    0.9999999909645264    1.497482002077375    1    1    1.06    0.94;
    112    3    0    0    0    0        1    1    0    1    1    1.06    0.94;
    113    2    0    0    0    0        1    0.9999999562216213    2.933866690591193    1    1    1.06    0.94;
    114    2    0    0    0    0        1    0.9999999958850466    -0.0711366055271393    1    1    1.06    0.94;
    115    2    0    0    0    0        1    1.000000100911849    -1.304567086467296    1    1    1.06    0.94;
    116    1    0    0    0    0        1    1.032638694409625    8.672787227390494    1    4    1.06    0.94;
    117    1    0    0    0    0        1    1.033156164113872    8.380977850217528    1    4    1.06    0.94;
    118    1    0    0    0    0        1    1.033126280787009    8.344339405844675    1    4    1.06    0.94;
    119    1    0    0    0    0        1    1.033001410017153    10.15741469979778    1    4    1.06    0.94;
    120    1    0    0    0    0        1    1.033001410017153    10.15741469979778    1    4    1.06    0.94;
    121    1    0    0    0    0        1    1.032917033513528    10.15907533428705    1    4    1.06    0.94;
    122    1    0    0    0    0        1    1.031401080277579    8.979769569862865    1    4    1.06    0.94;
    123    1    0    0    0    0        1    1.031401080277579    8.979769569862865    1    4    1.06    0.94;
    124    1    0    0    0    0        1    1.03131629092833    8.981443423537955    1    4    1.06    0.94;
];
%% generator data
%	bus	Pg	Qg	Qmax	Qmin	Vg	mBase	status	Pmax	Pmin	Pc1	Pc2	Qc1min	Qc1max	Qc2min	Qc2max	ramp_agc	ramp_10	ramp_30	ramp_q	apf
mpc.gen = [
  9  -990  -86.5234  9999  -9999  1  100  1  9999  0   0 0 0 0 0 0 0 0 0 0 0;
  11  -793.6  -167.8711  9999  -9999  1  100  1  9999  0   0 0 0 0 0 0 0 0 0 0 0;
  13  -793.6  -167.8711  9999  -9999  1  100  1  9999  0   0 0 0 0 0 0 0 0 0 0 0;
  83  750  70.77500000000001  600  0  0.9999999661028007  100  1  1000  0   0 0 0 0 0 0 0 0 0 0 0;
  84  650  82.6207  500  0  1.000000037730907  100  1  1000  0   0 0 0 0 0 0 0 0 0 0 0;
  85  190  0  0  0  1.032462033830059  100  1  350  0   0 0 0 0 0 0 0 0 0 0 0;
  86  190  0  0  0  1.032377543562083  100  1  350  0   0 0 0 0 0 0 0 0 0 0 0;
  87  190  0  0  0  1.032377543562083  100  1  350  0   0 0 0 0 0 0 0 0 0 0 0;
  88  190  0  0  0  1.032252312021943  100  1  350  0   0 0 0 0 0 0 0 0 0 0 0;
  89  190  0  0  0  1.032167751057822  100  1  350  0   0 0 0 0 0 0 0 0 0 0 0;
  90  190  0  0  0  1.032167751057822  100  1  350  0   0 0 0 0 0 0 0 0 0 0 0;
  91  190  0  0  0  1.032167751057822  100  1  300  0   0 0 0 0 0 0 0 0 0 0 0;
  92  190  0  0  0  1.032167751057822  100  1  300  0   0 0 0 0 0 0 0 0 0 0 0;
  93  190  0  0  0  1.030648499294271  100  1  350  0   0 0 0 0 0 0 0 0 0 0 0;
  94  190  0  0  0  1.030563518471013  100  1  350  0   0 0 0 0 0 0 0 0 0 0 0;
  95  190  0  0  0  1.030563518471013  100  1  350  0   0 0 0 0 0 0 0 0 0 0 0;
  111  500  107.2888  300  0  0.9999999909645264  100  1  600  0   0 0 0 0 0 0 0 0 0 0 0;
  112  478.7232  117.4522  9999  -9999  1  100  1  600  0   0 0 0 0 0 0 0 0 0 0 0;
  113  600  79.1994  600  0  0.9999999562216213  100  1  1000  0   0 0 0 0 0 0 0 0 0 0 0;
  114  300  74.8794  300  0  0.9999999958850466  100  1  600  0   0 0 0 0 0 0 0 0 0 0 0;
  115  400  122.3542  250  0  1.000000100911849  100  1  600  0   0 0 0 0 0 0 0 0 0 0 0;
  116  200  0  0  0  1.032638694409625  100  1  350  0   0 0 0 0 0 0 0 0 0 0 0;
  117  190  0  0  0  1.033156164113872  100  1  350  0   0 0 0 0 0 0 0 0 0 0 0;
  118  190  0  0  0  1.033126280787009  100  1  350  0   0 0 0 0 0 0 0 0 0 0 0;
  119  190  0  0  0  1.033001410017153  100  1  350  0   0 0 0 0 0 0 0 0 0 0 0;
  120  190  0  0  0  1.033001410017153  100  1  350  0   0 0 0 0 0 0 0 0 0 0 0;
  121  190  0  0  0  1.032917033513528  100  1  350  0   0 0 0 0 0 0 0 0 0 0 0;
  122  190  0  0  0  1.031401080277579  100  1  350  0   0 0 0 0 0 0 0 0 0 0 0;
  123  190  0  0  0  1.031401080277579  100  1  350  0   0 0 0 0 0 0 0 0 0 0 0;
  124  190  0  0  0  1.03131629092833  100  1  350  0   0 0 0 0 0 0 0 0 0 0 0;
68    -500    -150.6717681884766    9999  -9999  1  100  1  -9999  0   0 0 0 0 0 0 0 0 0 0 0;
69    495    -163.822998046875    9999  -9999  1  100  1  -9999  0   0 0 0 0 0 0 0 0 0 0 0;
70    -400    -118.3314743041992    9999  -9999  1  100  1  -9999  0   0 0 0 0 0 0 0 0 0 0 0;
71    396.8000183105469    -129.5991668701172    9999  -9999  1  100  1  -9999  0   0 0 0 0 0 0 0 0 0 0 0;
72    -400    -118.3313980102539    9999  -9999  1  100  1  -9999  0   0 0 0 0 0 0 0 0 0 0 0;
73    396.8000183105469    -129.5991668701172    9999  -9999  1  100  1  -9999  0   0 0 0 0 0 0 0 0 0 0 0;
74    -500    -150.6717681884766    9999  -9999  0.9999999661028007  100  1  -9999  0   0 0 0 0 0 0 0 0 0 0 0;
76    495    -163.822998046875    9999  -9999  0.9999999661028007  100  1  -9999  0   0 0 0 0 0 0 0 0 0 0 0;
77    -400    -118.3316421508789    9999  -9999  1.000000037730907  100  1  -9999  0   0 0 0 0 0 0 0 0 0 0 0;
79    396.8000183105469    -129.5991668701172    9999  -9999  1.000000037730907  100  1  -9999  0   0 0 0 0 0 0 0 0 0 0 0;
80    -400    -118.3313980102539    9999  -9999  1.032462033830059  100  1  -9999  0   0 0 0 0 0 0 0 0 0 0 0;
82    396.8000183105469    -129.5991668701172    9999  -9999  1.032462033830059  100  1  -9999  0   0 0 0 0 0 0 0 0 0 0 0;
];
%% branch data
%	fbus	tbus	r	x	b	rateA	rateB	rateC	ratio	angle	status	angmin	angmax   
mpc.branch = [
  1  2  5e-05  0.00168  0.07575999999999999  0  0  0  0    0  1  -360  360  ;
  1  3  0.00025  0.00158  0.3994  0  0  0  0    0  1  -360  360  ;
  1  4  0.0007  0.0092  0.20318  0  0  0  0    0  1  -360  360  ;
  2  4  0.00057  0.007990000000000001  0.89244  0  0  0  0    0  1  -360  360  ;
  2  7  0.00025  0.00358  0.3994  0  0  0  0    0  1  -360  360  ;
  3  5  6.999999999999999e-05  0.00095  0.00358  0  0  0  0    0  1  -360  360  ;
  4  6  0.00011  0.00153  0.00574  0  0  0  0    0  1  -360  360  ;
  4  6  0.00011  0.00153  0.00574  0  0  0  0    0  1  -360  360  ;
  5  6  5e-05  0.00166  0.0025  0  0  0  0    0  1  -360  360  ;
  6  7  0.0004  0.0055  0.0204  0  0  0  0    0  1  -360  360  ;
  6  7  0.0004  0.0055  0.0204  0  0  0  0    0  1  -360  360  ;
  8  2  0  0.0001  0  0  0  0  0    0  1  -360  360  ;
  10  5  0  0.0001  0  0  0  0  0    0  1  -360  360  ;
  12  7  0  0.0001  0  0  0  0  0    0  1  -360  360  ;
  34  44  0.00186  0.01307  0.04824  1596  1596  1596  0    0  1  -360  360  ;
  34  44  0.00186  0.01307  0.04824  1596  1596  1596  0    0  1  -360  360  ;
  35  45  0.00186  0.01307  0.04824  1596  1596  1596  0    0  1  -360  360  ;
  35  45  0.00186  0.01307  0.04824  1596  1596  1596  0    0  1  -360  360  ;
  36  46  0.00186  0.01307  0.04824  1596  1596  1596  0    0  1  -360  360  ;
  36  46  0.00186  0.01307  0.04824  1596  1596  1596  0    0  1  -360  360  ;
  37  44  0.00186  0.01307  0.04824  1596  1596  1596  0    0  1  -360  360  ;
  37  44  0.00186  0.01307  0.04824  1596  1596  1596  0    0  1  -360  360  ;
  38  45  0.00186  0.01307  0.04824  1596  1596  1596  0    0  1  -360  360  ;
  38  45  0.00186  0.01307  0.04824  1596  1596  1596  0    0  1  -360  360  ;
  39  46  0.00186  0.01307  0.04824  1596  1596  1596  0    0  1  -360  360  ;
  39  46  0.00186  0.01307  0.04824  1596  1596  1596  0    0  1  -360  360  ;
  40  44  0.00186  0.01307  0.04824  1596  1596  1596  0    0  1  -360  360  ;
  40  44  0.00186  0.01307  0.04824  1596  1596  1596  0    0  1  -360  360  ;
  41  45  0.00186  0.01307  0.04824  1596  1596  1596  0    0  1  -360  360  ;
  41  45  0.00186  0.01307  0.04824  1596  1596  1596  0    0  1  -360  360  ;
  42  46  0.00186  0.01307  0.04824  1596  1596  1596  0    0  1  -360  360  ;
  42  46  0.00186  0.01307  0.04824  1596  1596  1596  0    0  1  -360  360  ;
  43  45  0.00186  0.01307  0.04824  1596  1596  1596  0    0  1  -360  360  ;
  43  45  0.00186  0.01307  0.04824  1596  1596  1596  0    0  1  -360  360  ;
  75  9  0  0.0001  0  0  0  0  0    0  1  -360  360  ;
  78  11  0  0.0001  0  0  0  0  0    0  1  -360  360  ;
  81  13  0  0.0001  0  0  0  0  0    0  1  -360  360  ;
  1  105  8.000000000000001e-05  0.02143    0    1000  1000  1000  1    0  1  -360  360  
  2  106  8.000000000000001e-05  0.02143    0    1000  1000  1000  1    0  1  -360  360  
  3  107  8.000000000000001e-05  0.02143    0    1000  1000  1000  1    0  1  -360  360  
  4  108  8.000000000000001e-05  0.02143    0    1000  1000  1000  1    0  1  -360  360  
  5  109  8.000000000000001e-05  0.02143    0    1000  1000  1000  1    0  1  -360  360  
  7  110  8.000000000000001e-05  0.02143    0    1000  1000  1000  1    0  1  -360  360  
  8  68  0  0.006    0    3000  3000  3000  1.060777413504381    0  1  -360  360  
  8  74  0  0.006    0    3000  3000  3000  1.060777413504381    0  1  -360  360  
  10  70  0  0.006    0    3000  3000  3000  1.071727469308    0  1  -360  360  
  10  77  0  0.006    0    3000  3000  3000  1.071727353050667    0  1  -360  360  
  12  72  0  0.006    0    3000  3000  3000  1.064305710565524    0  1  -360  360  
  12  80  0  0.006    0    3000  3000  3000  1.064305594308    0  1  -360  360  
  14  34  0  0.035    0    350  350  350  1    0  1  -360  360  
  15  35  0  0.035    0    350  350  350  1    0  1  -360  360  
  16  36  0  0.035    0    350  350  350  1    0  1  -360  360  
  17  34  0  0.035    0    350  350  350  1    0  1  -360  360  
  18  35  0  0.035    0    350  350  350  1    0  1  -360  360  
  19  36  0  0.035    0    350  350  350  1    0  1  -360  360  
  20  37  0  0.035    0    350  350  350  1    0  1  -360  360  
  21  38  0  0.035    0    350  350  350  1    0  1  -360  360  
  22  39  0  0.035    0    350  350  350  1    0  1  -360  360  
  23  37  0  0.035    0    350  350  350  1    0  1  -360  360  
  24  38  0  0.035    0    350  350  350  1    0  1  -360  360  
  25  39  0  0.035    0    350  350  350  1    0  1  -360  360  
  26  40  0  0.035    0    350  350  350  1    0  1  -360  360  
  27  41  0  0.035    0    350  350  350  1    0  1  -360  360  
  28  42  0  0.035    0    350  350  350  1    0  1  -360  360  
  29  40  0  0.035    0    350  350  350  1    0  1  -360  360  
  30  41  0  0.035    0    350  350  350  1    0  1  -360  360  
  31  42  0  0.035    0    350  350  350  1    0  1  -360  360  
  32  43  0  0.035    0    350  350  350  1    0  1  -360  360  
  33  43  0  0.035    0    350  350  350  1    0  1  -360  360  
  56  105  5e-05  -0.0021    0    1000  1000  1000  1    0  1  -360  360  
  57  106  5e-05  -0.0021    0    1000  1000  1000  1    0  1  -360  360  
  58  107  5e-05  -0.0021    0    1000  1000  1000  1    0  1  -360  360  
  59  108  5e-05  -0.0021    0    1000  1000  1000  1    0  1  -360  360  
  60  109  5e-05  -0.0021    0    1000  1000  1000  1    0  1  -360  360  
  61  110  5e-05  -0.0021    0    1000  1000  1000  1    0  1  -360  360  
  62  105  0.00047  0.04093    0    300  300  300  1    0  1  -360  360  
  63  106  0.00047  0.04093    0    300  300  300  1    0  1  -360  360  
  64  107  0.00047  0.04093    0    300  300  300  1    0  1  -360  360  
  65  108  0.00047  0.04093    0    300  300  300  1    0  1  -360  360  
  66  109  0.00047  0.04093    0    300  300  300  1    0  1  -360  360  
  67  110  0.00047  0.04093    0    300  300  300  1    0  1  -360  360  
  75  69  0  0.006    0    3000  3000  3000  1.019782831101143    0  1  -360  360  
  75  76  0  0.006    0    3000  3000  3000  1.019782831101143    0  1  -360  360  
  78  71  0  0.006    0    3000  3000  3000  1.021517508370476    0  1  -360  360  
  78  79  0  0.006    0    3000  3000  3000  1.021517508370476    0  1  -360  360  
  81  73  0  0.006    0    3000  3000  3000  1.021517508370476    0  1  -360  360  
  81  82  0  0.006    0    3000  3000  3000  1.021517508370476    0  1  -360  360  
  83  5  0.00026  0.01064    0    1400  1400  1400  1    0  1  -360  360  
  84  6  0.00026  0.01064    0    1400  1400  1400  1    0  1  -360  360  
  85  23  0  0.02167    0    350  350  350  1.000000015    0  1  -360  360  
  86  26  0  0.02167    0    350  350  350  1.000000015    0  1  -360  360  
  87  29  0  0.02167    0    350  350  350  1.000000015    0  1  -360  360  
  88  24  0  0.02167    0    350  350  350  1.000000015    0  1  -360  360  
  89  27  0  0.02167    0    350  350  350  1.000000015    0  1  -360  360  
  90  30  0  0.02167    0    350  350  350  1.000000015    0  1  -360  360  
  91  32  0  0.02167    0    350  350  350  1.000000015    0  1  -360  360  
  92  33  0  0.02167    0    350  350  350  1.000000015    0  1  -360  360  
  93  25  0  0.02167    0    350  350  350  1.000000015    0  1  -360  360  
  94  28  0  0.02167    0    350  350  350  1.000000015    0  1  -360  360  
  95  31  0  0.02167    0    350  350  350  1.000000015    0  1  -360  360  
  96  1  5e-05  0.0157    0    1000  1000  1000  1    0  1  -360  360  
  96  44  5e-05  -0.00158    0    1000  1000  1000  1    0  1  -360  360  
  96  47  0.00021  0.02668    0    360  360  360  1    0  1  -360  360  
  97  1  5e-05  0.0157    0    1000  1000  1000  1    0  1  -360  360  
  97  44  5e-05  -0.00158    0    1000  1000  1000  1    0  1  -360  360  
  97  48  0.00021  0.02668    0    360  360  360  1    0  1  -360  360  
  98  1  5e-05  0.0157    0    1000  1000  1000  1    0  1  -360  360  
  98  44  5e-05  -0.00158    0    1000  1000  1000  1    0  1  -360  360  
  98  49  0.00021  0.02668    0    360  360  360  1    0  1  -360  360  
  99  3  5e-05  0.0157    0    1000  1000  1000  1    0  1  -360  360  
  99  45  5e-05  -0.00158    0    1000  1000  1000  1    0  1  -360  360  
  99  50  0.00021  0.02668    0    360  360  360  1    0  1  -360  360  
  100  3  5e-05  0.0157    0    1000  1000  1000  1    0  1  -360  360  
  100  45  5e-05  -0.00158    0    1000  1000  1000  1    0  1  -360  360  
  100  51  0.00021  0.02668    0    360  360  360  1    0  1  -360  360  
  101  3  5e-05  0.0157    0    1000  1000  1000  1    0  1  -360  360  
  101  45  5e-05  -0.00158    0    1000  1000  1000  1    0  1  -360  360  
  101  52  0.00021  0.02668    0    360  360  360  1    0  1  -360  360  
  102  5  5e-05  0.0157    0    1000  1000  1000  1    0  1  -360  360  
  102  46  5e-05  -0.00158    0    1000  1000  1000  1    0  1  -360  360  
  102  53  0.00021  0.02668    0    360  360  360  1    0  1  -360  360  
  103  5  5e-05  0.0157    0    1000  1000  1000  1    0  1  -360  360  
  103  46  5e-05  -0.00158    0    1000  1000  1000  1    0  1  -360  360  
  103  54  0.00021  0.02668    0    360  360  360  1    0  1  -360  360  
  104  5  5e-05  0.0157    0    1000  1000  1000  1    0  1  -360  360  
  104  46  5e-05  -0.00158    0    1000  1000  1000  1    0  1  -360  360  
  104  55  0.00021  0.02668    0    360  360  360  1    0  1  -360  360  
  111  1  0.00026  0.01064    0    780  780  780  1    0  1  -360  360  
  112  2  0.00026  0.01064    0    780  780  780  1    0  1  -360  360  
  113  3  0.00026  0.01064    0    1400  1400  1400  1    0  1  -360  360  
  114  4  0.00026  0.01064    0    780  780  780  1    0  1  -360  360  
  115  7  0.00026  0.01064    0    780  780  780  1    0  1  -360  360  
  116  14  0  0.01806    0    350  350  350  0.9999999965217392    0  1  -360  360  
  117  17  0  0.01806    0    350  350  350  0.9999999965217392    0  1  -360  360  
  118  20  0  0.01806    0    350  350  350  0.9999999965217392    0  1  -360  360  
  119  15  0  0.01806    0    350  350  350  0.9999999965217392    0  1  -360  360  
  120  18  0  0.01806    0    350  350  350  0.9999999965217392    0  1  -360  360  
  121  21  0  0.01806    0    350  350  350  0.9999999965217392    0  1  -360  360  
  122  16  0  0.01806    0    350  350  350  0.9999999965217392    0  1  -360  360  
  123  19  0  0.01806    0    350  350  350  0.9999999965217392    0  1  -360  360  
  124  22  0  0.01806    0    350  350  350  0.9999999965217392    0  1  -360  360  
];
%% busmap data
%	busname  bus_no 
mpc.map = {
'B01525.00',1;
'B02525.00',2;
'B03525.00',3;
'B04525.00',4;
'B05525.00',5;
'B06525.00',6;
'B07525.00',7;
'B08525.00',8;
'B09525.00',9;
'B10525.00',10;
'B11525.00',11;
'B12525.00',12;
'B13525.00',13;
'B1438.50',14;
'B1538.50',15;
'B1638.50',16;
'B1738.50',17;
'B1838.50',18;
'B1938.50',19;
'B2038.50',20;
'B2138.50',21;
'B2238.50',22;
'B2338.50',23;
'B2438.50',24;
'B2538.50',25;
'B2638.50',26;
'B2738.50',27;
'B2838.50',28;
'B2938.50',29;
'B3038.50',30;
'B3138.50',31;
'B3238.50',32;
'B3338.50',33;
'B34230.00',34;
'B35230.00',35;
'B36230.00',36;
'B37230.00',37;
'B38230.00',38;
'B39230.00',39;
'B40230.00',40;
'B41230.00',41;
'B42230.00',42;
'B43230.00',43;
'B44230.00',44;
'B45230.00',45;
'B46230.00',46;
'B4737.00',47;
'B4837.00',48;
'B4937.00',49;
'B5037.00',50;
'B5137.00',51;
'B5237.00',52;
'B5337.00',53;
'B5437.00',54;
'B5537.00',55;
'B56230.00',56;
'B57230.00',57;
'B58230.00',58;
'B59230.00',59;
'B60230.00',60;
'B61230.00',61;
'B6237.00',62;
'B6337.00',63;
'B6437.00',64;
'B6537.00',65;
'B6637.00',66;
'B6737.00',67;
'DN01-1210.00',68;
'DN02-1199.00',69;
'DN03-1210.00',70;
'DN04-1199.00',71;
'DN05-1210.00',72;
'DN06-1199.00',73;
'DP01-1210.00',74;
'DP02-1199.00',76;
'DP02525.00',75;
'DP03-1210.00',77;
'DP04-1199.00',79;
'DP04525.00',78;
'DP05-1210.00',80;
'DP06-1199.00',82;
'DP06525.00',81;
'HP0520.00',83;
'HP0620.00',84;
'PV01-10.40',85;
'PV01-20.40',86;
'PV01-30.40',87;
'PV03-10.40',88;
'PV03-20.40',89;
'PV03-30.40',90;
'PV03-40.40',91;
'PV03-50.40',92;
'PV05-10.40',93;
'PV05-20.40',94;
'PV05-30.40',95;
'T3-011.00',96;
'T3-021.00',97;
'T3-031.00',98;
'T3-041.00',99;
'T3-051.00',100;
'T3-061.00',101;
'T3-071.00',102;
'T3-081.00',103;
'T3-091.00',104;
'T3-101.00',105;
'T3-111.00',106;
'T3-121.00',107;
'T3-131.00',108;
'T3-141.00',109;
'T3-151.00',110;
'TP0120.00',111;
'TP0220.00',112;
'TP0320.00',113;
'TP0420.00',114;
'TP0720.00',115;
'WT01-10.69',116;
'WT01-20.69',117;
'WT01-30.69',118;
'WT03-10.69',119;
'WT03-20.69',120;
'WT03-30.69',121;
'WT05-10.69',122;
'WT05-20.69',123;
'WT05-30.69',124;
};
%% busmap data
%	busname  bus_no 
mpc.zonemap = {
'0',5;
'1A',2;
'1B',1;
'D',3;
'FH',4;
};
